<?xml version="1.0" encoding="UTF-8"?>
<flow xmlns="http://www.springframework.org/schema/webflow"
 xmlns:xsi="http://www.w3.org/2001/XMLSchema-instance"
 xsi:schemaLocation="http://www.springframework.org/schema/webflow http://www.springframework.org/schema/webflow/spring-webflow.xsd">

 <input name="dCItemServiceRequest" required="true" />

 <action-state id="validate">
 <evaluate
 expression="dCItemValidator.checkDCItemDuplicate(dCItemServiceRequest)" />
 <evaluate expression="endValidation">
 <attribute name="name" value="endValidation"></attribute>
 </evaluate>
 <transition on="endValidation.success" to="createDCItem" />
 </action-state>

 <action-state id="createDCItem">
 <evaluate
 expression="dCItemComponent.createDCItem(dCItemServiceRequest)"
 result="flowScope.dCItemServiceResponse" />
 <transition to="exit" />
 </action-state>

 <end-state id="exit">
 <output name="dCItemServiceResponse" />
 </end-state>
</flow>