<?xml version="1.0" encoding="UTF-8"?>
<flow xmlns="http://www.springframework.org/schema/webflow"
	xmlns:xsi="http://www.w3.org/2001/XMLSchema-instance"
	xsi:schemaLocation="http://www.springframework.org/schema/webflow http://www.springframework.org/schema/webflow/spring-webflow.xsd">

	<input name="orderItemServiceRequest" required="true" />

	<action-state id="preprocess">
		<evaluate
			expression="orderItemComponent.preprocess(orderItemServiceRequest)" />
		<transition to="validate" />
	</action-state>

	<action-state id="validate">
		<evaluate
			expression="purchaseOrderValidator.isPurchaseOrderClosed(orderItemServiceRequest.purchaseOrderServiceRequest)" />
		<evaluate
			expression="purchaseOrderValidator.isPurchaseOrderIssued(orderItemServiceRequest.purchaseOrderServiceRequest)" />
		<evaluate expression="endValidation">
			<attribute name="name" value="endValidation"></attribute>
		</evaluate>
		<transition on="endValidation.success" to="deleteOrderItem" />
	</action-state>

	<action-state id="deleteOrderItem">
		<evaluate
			expression="orderItemComponent.deleteOrderItem(orderItemServiceRequest)"
			result="flowScope.orderItemServiceResponse" />
		<transition to="exit" />
	</action-state>

	<end-state id="exit">
		<output name="orderItemServiceResponse" />
	</end-state>
</flow>