<?xml version="1.0" encoding="UTF-8"?>
<flow xmlns="http://www.springframework.org/schema/webflow"
	xmlns:xsi="http://www.w3.org/2001/XMLSchema-instance"
	xsi:schemaLocation="http://www.springframework.org/schema/webflow http://www.springframework.org/schema/webflow/spring-webflow.xsd">

	<input name="subContractorServiceRequest" required="true" />

	<action-state id="validate">
		<evaluate
			expression="subContractorValidator.checkSubContractorDuplicate(subContractorServiceRequest)" />
		<evaluate expression="endValidation">
			<attribute name="name" value="endValidation"></attribute>
		</evaluate>
		<transition on="endValidation.success"
			to="createAddressRequest" />
	</action-state>

	<action-state id="createAddressRequest">
		<evaluate
			expression="subContractorComponent.createAddressServiceRequest(subContractorServiceRequest)"
			result="flowScope.addressServiceRequest" />
		<transition to="createAddress" />
	</action-state>

	<action-state id="createAddress">
		<evaluate
			expression="addressService.createAddress(flowScope.addressServiceRequest)"
			result="flowScope.addressServiceResponse" />
		<transition to="createFinancialDetailServiceRequest" />
	</action-state>

	<action-state id="createFinancialDetailServiceRequest">
		<evaluate
			expression="subContractorComponent.createFinancialDetailServiceRequest(subContractorServiceRequest)"
			result="flowScope.financialDetailServiceRequest" />
		<transition to="createFinancialDetail" />
	</action-state>

	<action-state id="createFinancialDetail">
		<evaluate
			expression="financialDetailService.createFinancialDetail(flowScope.financialDetailServiceRequest)"
			result="flowScope.financialDetailServiceResponse" />
		<transition to="updateSubContractorServiceRequest" />
	</action-state>

	<action-state id="updateSubContractorServiceRequest">
		<evaluate
			expression="subContractorComponent.updateSubContractorServiceRequest(subContractorServiceRequest,flowScope.addressServiceResponse,flowScope.financialDetailServiceResponse)" />
		<transition to="createSubContractor" />
	</action-state>

	<action-state id="createSubContractor">
		<evaluate
			expression="subContractorComponent.createSubContractor(subContractorServiceRequest)"
			result="flowScope.subContractorServiceResponse" />
		<transition to="exit" />
	</action-state>

	<end-state id="exit">
		<output name="subContractorServiceResponse" />
	</end-state>
</flow>