<?xml version="1.0" encoding="UTF-8"?>
<flow xmlns="http://www.springframework.org/schema/webflow"
 xmlns:xsi="http://www.w3.org/2001/XMLSchema-instance"
 xsi:schemaLocation="http://www.springframework.org/schema/webflow http://www.springframework.org/schema/webflow/spring-webflow.xsd">

 <input name="steelDetailsServiceRequest" required="true" />

 <action-state id="validate">
 <evaluate
 expression="steelDetailsValidator.checkSteelDetailsDuplicate(steelDetailsServiceRequest)" />
 <evaluate expression="endValidation">
 <attribute name="name" value="endValidation"></attribute>
 </evaluate>
 <transition on="endValidation.success" to="updateSteelDetails" />
 </action-state>

 <action-state id="updateSteelDetails">
 <evaluate
 expression="steelDetailsComponent.updateSteelDetails(steelDetailsServiceRequest)"
 result="flowScope.steelDetailsServiceResponse" />
 <transition to="exit" />
 </action-state>

 <end-state id="exit">
 <output name="steelDetailsServiceResponse" />
 </end-state>
</flow>