<?xml version="1.0" encoding="UTF-8"?>
<flow xmlns="http://www.springframework.org/schema/webflow"
	xmlns:xsi="http://www.w3.org/2001/XMLSchema-instance"
	xsi:schemaLocation="http://www.springframework.org/schema/webflow http://www.springframework.org/schema/webflow/spring-webflow.xsd">

	<input name="reportServiceRequest" required="true" />

	<action-state id="getReports">
		<evaluate
			expression="reportComponent.getReports(reportServiceRequest)"
			result="flowScope.reportServiceResponse" />
		<transition to="exit" />
	</action-state>

	<end-state id="exit">
		<output name="reportServiceResponse" />
	</end-state>
</flow>