<?xml version="1.0" encoding="UTF-8"?>
<flow xmlns="http://www.springframework.org/schema/webflow"
 xmlns:xsi="http://www.w3.org/2001/XMLSchema-instance"
 xsi:schemaLocation="http://www.springframework.org/schema/webflow http://www.springframework.org/schema/webflow/spring-webflow.xsd">

 <input name="itemBasicAmountDetailsServiceRequest" required="true" />

 <action-state id="validate">
 <evaluate
 expression="itemBasicAmountDetailsValidator.checkItemBasicAmountDetailsDuplicate(itemBasicAmountDetailsServiceRequest)" />
 <evaluate expression="endValidation">
 <attribute name="name" value="endValidation"></attribute>
 </evaluate>
 <transition on="endValidation.success" to="updateItemBasicAmountDetails" />
 </action-state>

 <action-state id="updateItemBasicAmountDetails">
 <evaluate
 expression="itemBasicAmountDetailsComponent.updateItemBasicAmountDetails(itemBasicAmountDetailsServiceRequest)"
 result="flowScope.itemBasicAmountDetailsServiceResponse" />
 <transition to="exit" />
 </action-state>

 <end-state id="exit">
 <output name="itemBasicAmountDetailsServiceResponse" />
 </end-state>
</flow>