<?xml version="1.0" encoding="UTF-8"?>
<flow xmlns="http://www.springframework.org/schema/webflow"
 xmlns:xsi="http://www.w3.org/2001/XMLSchema-instance"
 xsi:schemaLocation="http://www.springframework.org/schema/webflow http://www.springframework.org/schema/webflow/spring-webflow.xsd">

 <input name="itemFreightAmountDetailsServiceRequest" required="true" />

 <action-state id="validate">
 <evaluate
 expression="itemFreightAmountDetailsValidator.checkItemFreightAmountDetailsDuplicate(itemFreightAmountDetailsServiceRequest)" />
 <evaluate expression="endValidation">
 <attribute name="name" value="endValidation"></attribute>
 </evaluate>
 <transition on="endValidation.success" to="updateItemFreightAmountDetails" />
 </action-state>

 <action-state id="updateItemFreightAmountDetails">
 <evaluate
 expression="itemFreightAmountDetailsComponent.updateItemFreightAmountDetails(itemFreightAmountDetailsServiceRequest)"
 result="flowScope.itemFreightAmountDetailsServiceResponse" />
 <transition to="exit" />
 </action-state>

 <end-state id="exit">
 <output name="itemFreightAmountDetailsServiceResponse" />
 </end-state>
</flow>