<?xml version="1.0" encoding="UTF-8"?>
<flow xmlns="http://www.springframework.org/schema/webflow"
 xmlns:xsi="http://www.w3.org/2001/XMLSchema-instance"
 xsi:schemaLocation="http://www.springframework.org/schema/webflow http://www.springframework.org/schema/webflow/spring-webflow.xsd">

 <input name="projectServiceRequest" required="true" />

 <action-state id="validate">
 <evaluate
 expression="projectValidator.checkProjectDuplicate(projectServiceRequest)" />
 <evaluate expression="endValidation">
 <attribute name="name" value="endValidation"></attribute>
 </evaluate>
 <transition on="endValidation.success" to="createProject" />
 </action-state>

 <action-state id="createProject">
 <evaluate
 expression="projectComponent.createProject(projectServiceRequest)"
 result="flowScope.projectServiceResponse" />
 <transition to="exit" />
 </action-state>

 <end-state id="exit">
 <output name="projectServiceResponse" />
 </end-state>
</flow>