<?xml version="1.0" encoding="UTF-8"?>
<flow xmlns="http://www.springframework.org/schema/webflow"
	xmlns:xsi="http://www.w3.org/2001/XMLSchema-instance"
	xsi:schemaLocation="http://www.springframework.org/schema/webflow http://www.springframework.org/schema/webflow/spring-webflow.xsd">

	<input name="projectServiceRequest" required="true" />

	<action-state id="deleteProject">
		<evaluate
			expression="projectComponent.deleteProject(projectServiceRequest)"
			result="flowScope.projectServiceResponse" />
		<transition to="exit" />
	</action-state>

	<end-state id="exit">
		<output name="projectServiceResponse" />
	</end-state>
</flow>