<?xml version="1.0" encoding="UTF-8"?>
<flow xmlns="http://www.springframework.org/schema/webflow"
 xmlns:xsi="http://www.w3.org/2001/XMLSchema-instance"
 xsi:schemaLocation="http://www.springframework.org/schema/webflow http://www.springframework.org/schema/webflow/spring-webflow.xsd">

 <input name="itemServiceRequest" required="true" />

 <action-state id="validate">
 <evaluate
 expression="itemValidator.checkItemDuplicate(itemServiceRequest)" />
 <evaluate expression="endValidation">
 <attribute name="name" value="endValidation"></attribute>
 </evaluate>
 <transition on="endValidation.success" to="updateItem" />
 </action-state>

 <action-state id="updateItem">
 <evaluate
 expression="itemComponent.updateItem(itemServiceRequest)"
 result="flowScope.itemServiceResponse" />
 <transition to="exit" />
 </action-state>

 <end-state id="exit">
 <output name="itemServiceResponse" />
 </end-state>
</flow>