<?xml version="1.0" encoding="UTF-8"?>
<flow xmlns="http://www.springframework.org/schema/webflow"
 xmlns:xsi="http://www.w3.org/2001/XMLSchema-instance"
 xsi:schemaLocation="http://www.springframework.org/schema/webflow http://www.springframework.org/schema/webflow/spring-webflow.xsd">

 <input name="companyServiceRequest" required="true" />

 <action-state id="validate">
 <evaluate
 expression="companyValidator.checkCompanyDuplicate(companyServiceRequest)" />
 <evaluate expression="endValidation">
 <attribute name="name" value="endValidation"></attribute>
 </evaluate>
 <transition on="endValidation.success" to="createCompany" />
 </action-state>

 <action-state id="createCompany">
 <evaluate
 expression="companyComponent.createCompany(companyServiceRequest)"
 result="flowScope.companyServiceResponse" />
 <transition to="exit" />
 </action-state>

 <end-state id="exit">
 <output name="companyServiceResponse" />
 </end-state>
</flow>