<?xml version="1.0" encoding="UTF-8"?>
<flow xmlns="http://www.springframework.org/schema/webflow"
	xmlns:xsi="http://www.w3.org/2001/XMLSchema-instance"
	xsi:schemaLocation="http://www.springframework.org/schema/webflow http://www.springframework.org/schema/webflow/spring-webflow.xsd">

	<input name="purchaseOrderItemServiceRequest" required="true" />

	<action-state id="preprocess">
		<evaluate
			expression="purchaseOrderItemComponent.preprocess(purchaseOrderItemServiceRequest)" />
		<transition to="validate" />
	</action-state>

	<action-state id="validate">
		<evaluate
			expression="purchaseOrderValidator.isPurchaseOrderClosed(purchaseOrderItemServiceRequest.purchaseOrderServiceRequest)" />
		<evaluate
			expression="purchaseOrderValidator.isPurchaseOrderIssued(purchaseOrderItemServiceRequest.purchaseOrderServiceRequest)" />
		<evaluate
			expression="purchaseOrderItemValidator.checkPurchaseOrderItemDuplicate(purchaseOrderItemServiceRequest)" />
		<evaluate expression="endValidation">
			<attribute name="name" value="endValidation"></attribute>
		</evaluate>
		<transition on="endValidation.success"
			to="createPurchaseOrderItem" />
	</action-state>

	<action-state id="createPurchaseOrderItem">
		<evaluate
			expression="purchaseOrderItemComponent.createPurchaseOrderItem(purchaseOrderItemServiceRequest)"
			result="flowScope.purchaseOrderItemServiceResponse" />
		<transition to="exit" />
	</action-state>

	<end-state id="exit">
		<output name="purchaseOrderItemServiceResponse" />
	</end-state>
</flow>