<?xml version="1.0" encoding="UTF-8"?>
<flow xmlns="http://www.springframework.org/schema/webflow"
 xmlns:xsi="http://www.w3.org/2001/XMLSchema-instance"
 xsi:schemaLocation="http://www.springframework.org/schema/webflow http://www.springframework.org/schema/webflow/spring-webflow.xsd">

 <input name="labourRateServiceRequest" required="true" />

 <action-state id="validate">
 <evaluate
 expression="labourRateValidator.checkLabourRateDuplicate(labourRateServiceRequest)" />
 <evaluate expression="endValidation">
 <attribute name="name" value="endValidation"></attribute>
 </evaluate>
 <transition on="endValidation.success" to="updateLabourRate" />
 </action-state>

 <action-state id="updateLabourRate">
 <evaluate
 expression="labourRateComponent.updateLabourRate(labourRateServiceRequest)"
 result="flowScope.labourRateServiceResponse" />
 <transition to="exit" />
 </action-state>

 <end-state id="exit">
 <output name="labourRateServiceResponse" />
 </end-state>
</flow>