<?xml version="1.0" encoding="UTF-8"?>
<flow xmlns="http://www.springframework.org/schema/webflow"
 xmlns:xsi="http://www.w3.org/2001/XMLSchema-instance"
 xsi:schemaLocation="http://www.springframework.org/schema/webflow http://www.springframework.org/schema/webflow/spring-webflow.xsd">

 <input name="accountHeadServiceRequest" required="true" />

 <action-state id="validate">
 <evaluate
 expression="accountHeadValidator.checkAccountHeadDuplicate(accountHeadServiceRequest)" />
 <evaluate expression="endValidation">
 <attribute name="name" value="endValidation"></attribute>
 </evaluate>
 <transition on="endValidation.success" to="updateAccountHead" />
 </action-state>

 <action-state id="updateAccountHead">
 <evaluate
 expression="accountHeadComponent.updateAccountHead(accountHeadServiceRequest)"
 result="flowScope.accountHeadServiceResponse" />
 <transition to="exit" />
 </action-state>

 <end-state id="exit">
 <output name="accountHeadServiceResponse" />
 </end-state>
</flow>