<?xml version="1.0" encoding="UTF-8"?>
<flow xmlns="http://www.springframework.org/schema/webflow"
 xmlns:xsi="http://www.w3.org/2001/XMLSchema-instance"
 xsi:schemaLocation="http://www.springframework.org/schema/webflow http://www.springframework.org/schema/webflow/spring-webflow.xsd">

 <input name="elementDetailsServiceRequest" required="true" />

 <action-state id="deleteElementDetails">
 <evaluate
 expression="elementDetailsComponent.deleteElementDetails(elementDetailsServiceRequest)"
 result="flowScope.elementDetailsServiceResponse" />
 <transition to="exit" />
 </action-state>

 <end-state id="exit">
 <output name="elementDetailsServiceResponse" />
 </end-state>
</flow>