<?xml version="1.0" encoding="UTF-8"?>
<flow xmlns="http://www.springframework.org/schema/webflow"
 xmlns:xsi="http://www.w3.org/2001/XMLSchema-instance"
 xsi:schemaLocation="http://www.springframework.org/schema/webflow http://www.springframework.org/schema/webflow/spring-webflow.xsd">

 <input name="elementDetailsServiceRequest" required="true" />

 <action-state id="validate">
 <evaluate
 expression="elementDetailsValidator.checkElementDetailsDuplicate(elementDetailsServiceRequest)" />
 <evaluate expression="endValidation">
 <attribute name="name" value="endValidation"></attribute>
 </evaluate>
 <transition on="endValidation.success" to="updateElementDetails" />
 </action-state>

 <action-state id="updateElementDetails">
 <evaluate
 expression="elementDetailsComponent.updateElementDetails(elementDetailsServiceRequest)"
 result="flowScope.elementDetailsServiceResponse" />
 <transition to="exit" />
 </action-state>

 <end-state id="exit">
 <output name="elementDetailsServiceResponse" />
 </end-state>
</flow>