<?xml version="1.0" encoding="UTF-8"?>
<flow xmlns="http://www.springframework.org/schema/webflow"
 xmlns:xsi="http://www.w3.org/2001/XMLSchema-instance"
 xsi:schemaLocation="http://www.springframework.org/schema/webflow http://www.springframework.org/schema/webflow/spring-webflow.xsd">

 <input name="purchaseRegisterItemServiceRequest" required="true" />

 <action-state id="validate">
 <evaluate
 expression="purchaseRegisterItemValidator.checkPurchaseRegisterItemDuplicate(purchaseRegisterItemServiceRequest)" />
 <evaluate expression="endValidation">
 <attribute name="name" value="endValidation"></attribute>
 </evaluate>
 <transition on="endValidation.success" to="createPurchaseRegisterItem" />
 </action-state>

 <action-state id="createPurchaseRegisterItem">
 <evaluate
 expression="purchaseRegisterItemComponent.createPurchaseRegisterItem(purchaseRegisterItemServiceRequest)"
 result="flowScope.purchaseRegisterItemServiceResponse" />
 <transition to="exit" />
 </action-state>

 <end-state id="exit">
 <output name="purchaseRegisterItemServiceResponse" />
 </end-state>
</flow>